LAMMPS (10 Aug 2015)
# PREREQUISITES:
#
#     You must use moltemplate.sh to create 3 files:
#        system.data  system.in.init  system.in.settings
#      (Follow the instructions in README_setup.sh,
#       or run the file as a script using ./README_setup.sh)
#
# ------------------------------- Initialization Section --------------------

include         "system.in.init"
    units real
    atom_style full
    bond_style hybrid harmonic
    angle_style hybrid harmonic
    pair_style hybrid lj/cut/coul/long 10.0 10.0
    pair_modify mix geometric
    special_bonds lj/coul 0.0 0.0 0.5
    kspace_style pppm 0.0001

# ------------------------------- Atom Definition Section -------------------

read_data       "system.data"
  orthogonal box = (0 0 0) to (26.6 26.6 26.6)
  reading atoms ...
  648 atoms
  scanning bonds ...
  scanning angles ...
  reading bonds ...
  432 bonds
  reading angles ...
  216 angles

# ------------------------------- Settings Section --------------------------

include         "system.in.settings"
    pair_coeff 1 1 lj/cut/coul/long 0.17 3.07
    pair_coeff 2 2 lj/cut/coul/long 0.0 0.0
    pair_coeff 3 3 lj/cut/coul/long 0.207 3.775
    bond_coeff 1 harmonic 386.0 1.425
    bond_coeff 2 harmonic 553.0 0.945
    bond_coeff 3 harmonic 260.0 1.526
    angle_coeff 1 harmonic 55.0 108.5
include         "system.in.charges"
    set type 1 charge -0.7
  216 settings made for charge
    set type 2 charge 0.435
  216 settings made for charge
    set type 3 charge 0.265
  216 settings made for charge

# ------------------------------- Run Section -------------------------------

# -- minimization protocol --

thermo          500
thermo_style    custom step cpu temp etotal press vol
minimize        6.0e-5 1.0e-6 500 400000
PPPM initialization ...
  G vector (1/distance) = 0.252005
  grid = 12 12 12
  stencil order = 5
  estimated absolute RMS force accuracy = 0.0240329
  estimated relative force accuracy = 7.23743e-05
  3d grid and FFT values/proc = 4913 1728
  1 neighbor list requests
  update every 1 steps, delay 0 steps, check yes
Step CPU Temp TotEng Press Volume
0            0            0    1346.9725   -36782.208    18821.096
Loop time of 0.977462 on 1 procs for 69 steps with 648 atoms

Minimization stats:
  Stopping criterion = energy tolerance
  Energy initial, next-to-last, final =
  Force two-norm initial, final = 3052.12 13.0903
  Force max component initial, final = 134.403 0.844077
  Final line search alpha, max atom move = 0.273579 0.230921
  Iterations, force evaluations = 69 155

Pair  time (%) = 0.713001 (72.9442)
Bond  time (%) = 0.0159481 (1.63158)
Kspce time (%) = 0.228577 (23.3848)
Neigh time (%) = 0 (0)
Comm  time (%) = 0.0120871 (1.23658)
Outpt time (%) = 0 (0)
Other time (%) = 0.00784826 (0.802923)

write_data      system_after_min.data
PPPM initialization ...
  G vector (1/distance) = 0.252005
  grid = 12 12 12
  stencil order = 5
  estimated absolute RMS force accuracy = 0.0240329
  estimated relative force accuracy = 7.23743e-05
  3d grid and FFT values/proc = 4913 1728
  1 neighbor list requests
  update every 1 steps, delay 10 steps, check yes

# -- simulation protocol --

reset_timestep  0
timestep        1.0
dump            1 all custom 50 traj_npt.lammpstrj id mol type x y z ix iy iz element type
dump_modify     1 element "O" "H" "C"
velocity        all create 273.2 2928459 rot yes mom yes dist gaussian
fix             fxnpt all npt temp 273.2 273.2 100.0 iso 1.0 1.0 1000.0
neigh_modify    delay  5  every  1  check  yes

run             40000
PPPM initialization ...
  G vector (1/distance) = 0.252005
  grid = 12 12 12
  stencil order = 5
  estimated absolute RMS force accuracy = 0.0240329
  estimated relative force accuracy = 7.23743e-05
  3d grid and FFT values/proc = 4913 1728
  1 neighbor list requests
  update every 1 steps, delay 5 steps, check yes
Step CPU Temp TotEng Press Volume
0            0        273.2   -415.57027   -1682.5781    18821.096
Averages over the last 41 of 81 rows, steps 20000 to 40000:
Temp TotEng Press Volume
274.845 -1172.97 6.54403 15851.3
Loop time of 338.444 on 1 procs for 40000 steps with 648 atoms

Pair  time (%) = 180.413 (53.3066)
Bond  time (%) = 5.65088 (1.66967)
Kspce time (%) = 76.4657 (22.5933)
Neigh time (%) = 10.3066 (3.04528)
Comm  time (%) = 3.75737 (1.11019)
Outpt time (%) = 2.67385 (0.790041)
Other time (%) = 59.1766 (17.4849)

write_data      system_after_npt.data
PPPM initialization ...
  G vector (1/distance) = 0.256396
  grid = 12 12 12
  stencil order = 5
  estimated absolute RMS force accuracy = 0.0207264
  estimated relative force accuracy = 6.2417e-05
  3d grid and FFT values/proc = 4913 1728
